src/tests/data/output/raw_export_result/IEEE_14_v35_3_nudox_1_hvdc_desf_rates_fs_ss.raw
@!IC,SBASE,REV,XFRRAT,NXFRAT,BASFRQ
,100.0,35,0,0,50     / Created with GridCal
(Wed Aug 27 14:10:33 2025)  HORIZON: 20241205 00H DEM: 25029.8MW
HID:4644MW,TERM:10747MW,EOL:6503MW,FV:0MW,OK
GENERAL, THRSHZ=0.0001, PQBRAK=0.7, BLOWUP=5.0, MaxIsolLvls=4, CAMaxReptSln=20, ChkDupCntLbl=0
GAUSS, ITMX=100, ACCP=1.6, ACCQ=1.6, ACCM=1.0, TOL=0.0001
NEWTON, ITMXN=20, ACCN=1.0, TOLN=0.1, VCTOLQ=0.1, VCTOLV=0.00001, DVLIM=0.99, NDVFCT=0.99
ADJUST, ADJTHR=0.005, ACCTAP=1.0, TAPLIM=0.05, SWVBND=100.0, MXTPSS=99, MXSWIM=10
TYSL, ITMXTY=20, ACCTY=1.0, TOLTY=0.00001
SOLVER, FNSL, ACTAPS=0, AREAIN=0, PHSHFT=0, DCTAPS=0, SWSHNT=0, FLATST=0, VARLIM=99, NONDIV=0
RATING, 1, "RATE1 ", "RATING SET 1                    "
RATING, 2, "RATE2 ", "RATING SET 2                    "
RATING, 3, "RATE3 ", "RATING SET 3                    "
RATING, 4, "RATE4 ", "RATING SET 4                    "
RATING, 5, "RATE5 ", "RATING SET 5                    "
RATING, 6, "RATE6 ", "RATING SET 6                    "
RATING, 7, "RATE7 ", "RATING SET 7                    "
RATING, 8, "RATE8 ", "RATING SET 8                    "
RATING, 9, "RATE9 ", "RATING SET 9                    "
RATING,10, "RATE10", "RATING SET 10                   "
RATING,11, "RATE11", "RATING SET 11                   "
RATING,12, "RATE12", "RATING SET 12                   "
0 / END OF SYSTEM-WIDE DATA, BEGIN BUS DATA
@!   I,'NAME        ', BASKV, IDE,AREA,ZONE,OWNER, VM,        VA,    NVHI,   NVLO,   EVHI,   EVLO
     1, 'BUS 1       ', 138.0000, 3,      1,      1,      1,  1.06000,   0.0000,  1.05000,  0.95000,  1.10000,  0.90000
     2, 'BUS 2       ', 138.0000, 2,      1,      1,      1,  1.04844,  -0.0358,  1.05000,  0.95000,  1.10000,  0.90000
     3, 'BUS 3       ', 138.0000, 2,      1,      1,      1,  1.01000,  -9.9009,  1.05000,  0.95000,  1.10000,  0.90000
     4, 'BUS 4       ', 138.0000, 1,      1,      1,      1,  1.02420,  -9.6856,  1.05000,  0.95000,  1.10000,  0.90000
     5, 'BUS 5       ', 138.0000, 1,      1,      1,      1,  1.05319, -10.1077,  1.05000,  0.95000,  1.10000,  0.90000
     6, 'BUS 6       ', 138.0000, 2,      1,      1,      1,  1.49702, -23.6347,  1.05000,  0.95000,  1.10000,  0.90000
     7, 'BUS 7       ', 138.0000, 1,      1,      1,      1,  1.01254, -12.1391,  1.05000,  0.95000,  1.10000,  0.90000
     8, 'BUS 8       ', 138.0000, 2,      1,      1,      1,  1.05270, -12.1391,  1.05000,  0.95000,  1.10000,  0.90000
     9, 'BUS 9       ', 138.0000, 1,      1,      1,      1,  0.97000, -13.5322,  1.05000,  0.95000,  1.10000,  0.90000
    10, 'BUS 10      ', 138.0000, 1,      1,      1,      1,  1.00000, -23.8140,  1.05000,  0.95000,  1.10000,  0.90000
    11, 'BUS 11      ', 138.0000, 1,      1,      1,      1,  1.23912, -23.5673,  1.05000,  0.95000,  1.10000,  0.90000
    12, 'BUS 12      ', 138.0000, 1,      1,      1,      1,  1.67337, -26.7076,  1.05000,  0.95000,  1.10000,  0.90000
    13, 'BUS 13      ', 138.0000, 1,      1,      1,      1,  1.66199, -28.9651,  1.05000,  0.95000,  1.10000,  0.90000
    14, 'BUS 14      ', 138.0000, 1,      1,      1,      1,  1.24638, -22.8815,  1.05000,  0.95000,  1.10000,  0.90000
    15, 'NEW_BUS_1   ', 138.0000, 1,      1,      1,      1,  1.04241,  -0.2716,  1.05000,  0.95000,  1.10000,  0.90000
    16, 'NEW_BUS_2   ',  33.0000, 1,      1,      1,      1,  0.99574,  -1.0370,  1.05000,  0.95000,  1.10000,  0.90000
    17, 'NEW_BUS_3   ', 400.0000, 1,      1,      1,      1,  1.01790,  -0.6421,  1.05000,  0.95000,  1.10000,  0.90000
    18, 'NUDOX1      ', 138.0000, 1,      2,      2,      1,  1.03118, -10.6806,  1.05000,  0.95000,  1.10000,  0.90000
    19, 'NUDOX2      ', 138.0000, 1,      2,      2,      1,  1.00146, -10.2907,  1.05000,  0.95000,  1.10000,  0.90000
0 / END OF BUS DATA, BEGIN LOAD DATA
@!   I,'ID',STAT,AREA,ZONE,      PL,        QL,        IP,        IQ,        YP,        YQ, OWNER,SCALE,INTRPT,  DGENP,     DGENQ,DGENF,'  LOAD TYPE '
     2, '1 ',      1,      0,      0,     21.7,     12.7, 0.00000E+00, 0.00000E+00, 0.00000E+00, 0.00000E+00,      0, 1.00000E+00, 0.00000E+00, 0.00000E+00, 0.00000E+00,      0, '            '
     3, '1 ',      1,      0,      0,     94.2,       19, 0.00000E+00, 0.00000E+00, 0.00000E+00, 0.00000E+00,      0, 1.00000E+00, 0.00000E+00, 0.00000E+00, 0.00000E+00,      0, '            '
     4, '1 ',      1,      0,      0,     47.8,     -3.9, 0.00000E+00, 0.00000E+00, 0.00000E+00, 0.00000E+00,      0, 1.00000E+00, 0.00000E+00, 0.00000E+00, 0.00000E+00,      0, '            '
     5, '1 ',      1,      0,      0, 7.60000E+00, 1.60000E+00, 0.00000E+00, 0.00000E+00, 0.00000E+00, 0.00000E+00,      0, 1.00000E+00, 0.00000E+00, 0.00000E+00, 0.00000E+00,      0, '            '
     6, '1 ',      1,      0,      0,     11.2, 7.50000E+00, 0.00000E+00, 0.00000E+00, 0.00000E+00, 0.00000E+00,      0, 1.00000E+00, 0.00000E+00, 0.00000E+00, 0.00000E+00,      0, '            '
     9, '1 ',      1,      0,      0,     29.5,     16.6, 0.00000E+00, 0.00000E+00, 0.00000E+00, 0.00000E+00,      0, 1.00000E+00, 0.00000E+00, 0.00000E+00, 0.00000E+00,      0, '            '
    10, '1 ',      1,      0,      0, 9.00000E+00, 5.80000E+00, 0.00000E+00, 0.00000E+00, 0.00000E+00, 0.00000E+00,      0, 1.00000E+00, 0.00000E+00, 0.00000E+00, 0.00000E+00,      0, '            '
    11, '1 ',      1,      0,      0, 3.50000E+00, 1.80000E+00, 0.00000E+00, 0.00000E+00, 0.00000E+00, 0.00000E+00,      0, 1.00000E+00, 0.00000E+00, 0.00000E+00, 0.00000E+00,      0, '            '
    12, '1 ',      1,      0,      0, 6.10000E+00, 1.60000E+00, 0.00000E+00, 0.00000E+00, 0.00000E+00, 0.00000E+00,      0, 1.00000E+00, 0.00000E+00, 0.00000E+00, 0.00000E+00,      0, '            '
    13, '1 ',      1,      0,      0,     13.5, 5.80000E+00, 0.00000E+00, 0.00000E+00, 0.00000E+00, 0.00000E+00,      0, 1.00000E+00, 0.00000E+00, 0.00000E+00, 0.00000E+00,      0, '            '
    14, '1 ',      1,      0,      0,     14.9, 5.00000E+00, 0.00000E+00, 0.00000E+00, 0.00000E+00, 0.00000E+00,      0, 1.00000E+00, 0.00000E+00, 0.00000E+00, 0.00000E+00,      0, '            '
    16, '1 ',      1,      0,      0, 5.00000E+00, 5.00000E+00, 0.00000E+00, 0.00000E+00, 0.00000E+00, 0.00000E+00,      0, 1.00000E+00, 0.00000E+00, 0.00000E+00, 0.00000E+00,      0, '            '
    17, '1 ',      1,      0,      0, 5.00000E+00, 5.00000E+00, 0.00000E+00, 0.00000E+00, 0.00000E+00, 0.00000E+00,      0, 1.00000E+00, 0.00000E+00, 0.00000E+00, 0.00000E+00,      0, '            '
    18, '1 ',      1,      0,      0,       10,       10, 0.00000E+00, 0.00000E+00, 0.00000E+00, 0.00000E+00,      0, 1.00000E+00, 0.00000E+00, 0.00000E+00, 0.00000E+00,      0, '            '
    19, '1 ',      1,      0,      0,       10,       10, 0.00000E+00, 0.00000E+00, 0.00000E+00, 0.00000E+00,      0, 1.00000E+00, 0.00000E+00, 0.00000E+00, 0.00000E+00,      0, '            '
0 / END OF LOAD DATA, BEGIN FIXED SHUNT DATA
@!   I,'ID',STATUS,  GL,        BL
     6, '3 ',      1,      0.1,       20
     6, '4 ',      1,      0.1,       20
     9, '2 ',      1, 0.00000E+00,       19
0 / END OF FIXED SHUNT DATA, BEGIN GENERATOR DATA
@!   I,'ID',      PG,        QG,        QT,        QB,     VS,    IREG,NREG,     MBASE,     ZR,         ZX,         RT,         XT,     GTAP,STAT, RMPCT,      PT,        PB,BASLOD,O1,    F1,  O2,    F2,  O3,    F3,  O4,    F4,WMOD, WPF
     1, '1 ',   92.677, 0.00000E+00, 0.00000E+00, 0.00000E+00, 1.06000E+00,      0,      0,      615, 0.00000E+00, 0.00000E+00, 0.00000E+00, 0.00000E+00, 0.00000E+00,      1,      100,    10000,   -10000,      0,      1, 1.00000E+00,      0, 1.00000E+00,      0, 1.00000E+00,      0, 1.00000E+00,      0, 1.00000E+00
     2, '2 ',      319, 0.00000E+00,       50,      -40, 1.04500E+00,      0,      0,       60, 0.00000E+00, 0.00000E+00, 0.00000E+00, 0.00000E+00, 0.00000E+00,      1,      100,    10000,   -10000,      0,      1, 1.00000E+00,      0, 1.00000E+00,      0, 1.00000E+00,      0, 1.00000E+00,      0, 1.00000E+00
     3, '2 ', 0.00000E+00, 0.00000E+00,       40, 0.00000E+00, 1.01000E+00,      0,      0,       60, 0.00000E+00, 0.00000E+00, 0.00000E+00, 0.00000E+00, 0.00000E+00,      1,      100,    10000,   -10000,      0,      1, 1.00000E+00,      0, 1.00000E+00,      0, 1.00000E+00,      0, 1.00000E+00,      0, 1.00000E+00
     6, '2 ', 0.00000E+00, 0.00000E+00,       24,       -6, 1.07000E+00,      0,      0,       25, 0.00000E+00, 0.00000E+00, 0.00000E+00, 0.00000E+00, 0.00000E+00,      1,      100,    10000,   -10000,      0,      1, 1.00000E+00,      0, 1.00000E+00,      0, 1.00000E+00,      0, 1.00000E+00,      0, 1.00000E+00
     8, '1 ', 0.00000E+00, 0.00000E+00,       24,       -6, 1.09000E+00,      0,      0,       25, 0.00000E+00, 0.00000E+00, 0.00000E+00, 0.00000E+00, 0.00000E+00,      1,      100,    10000,   -10000,      0,      1, 1.00000E+00,      0, 1.00000E+00,      0, 1.00000E+00,      0, 1.00000E+00,      0, 1.00000E+00
0 / END OF GENERATOR DATA, BEGIN BRANCH DATA
@!   I,     J,'CKT',      R,           X,       B,                   'N A M E'                 ,  RATE1,  RATE2,  RATE3,  RATE4,  RATE5,  RATE6,  RATE7,  RATE8,  RATE9, RATE10, RATE11, RATE12,   GI,      BI,      GJ,      BJ,STAT,MET, LEN,  O1,  F1,    O2,  F2,    O3,  F3,    O4,  F4
     1,      2, '1 ',  0.01938,  0.05917,   0.0528, '1_BUS1_138.0_2_BUS2_138.0_1             ',      600,      700,      800, 0.00000E+00, 0.00000E+00, 0.00000E+00, 0.00000E+00, 0.00000E+00, 0.00000E+00, 0.00000E+00, 0.00000E+00, 0.00000E+00, 0.00000E+00, 0.00000E+00, 0.00000E+00, 0.00000E+00,      1,      1, 0.00000E+00,    1, 1.00000E+00,    0, 0.00000E+00,    0, 0.00000E+00,    0, 0.00000E+00
     1,      5, '1 ',  0.05403,  0.22304,   0.0492, '1_BUS1_138.0_5_BUS5_138.0_1             ',      600,      700,      800, 0.00000E+00, 0.00000E+00, 0.00000E+00, 0.00000E+00, 0.00000E+00, 0.00000E+00, 0.00000E+00, 0.00000E+00, 0.00000E+00, 0.00000E+00, 0.00000E+00, 0.00000E+00, 0.00000E+00,      1,      1, 0.00000E+00,    1, 1.00000E+00,    0, 0.00000E+00,    0, 0.00000E+00,    0, 0.00000E+00
     2,      3, '1 ',  0.04699,  0.19797,   0.0438, '2_BUS2_138.0_3_BUS3_138.0_1             ',      600,      700,      800, 0.00000E+00, 0.00000E+00, 0.00000E+00, 0.00000E+00, 0.00000E+00, 0.00000E+00, 0.00000E+00, 0.00000E+00, 0.00000E+00, 0.00000E+00, 0.00000E+00, 0.00000E+00, 0.00000E+00,      1,      1, 0.00000E+00,    1, 1.00000E+00,    0, 0.00000E+00,    0, 0.00000E+00,    0, 0.00000E+00
     2,      4, '1 ',  0.05811,  0.17632,    0.034, '2_BUS2_138.0_4_BUS4_138.0_1             ',      600,      700,      800, 0.00000E+00, 0.00000E+00, 0.00000E+00, 0.00000E+00, 0.00000E+00, 0.00000E+00, 0.00000E+00, 0.00000E+00, 0.00000E+00, 0.00000E+00, 0.00000E+00, 0.00000E+00, 0.00000E+00,      1,      1, 0.00000E+00,    1, 1.00000E+00,    0, 0.00000E+00,    0, 0.00000E+00,    0, 0.00000E+00
     2,      5, '1 ',  0.05695,  0.17388,   0.0346, '2_BUS2_138.0_5_BUS5_138.0_1             ',      600,      700,      800, 0.00000E+00, 0.00000E+00, 0.00000E+00, 0.00000E+00, 0.00000E+00, 0.00000E+00, 0.00000E+00, 0.00000E+00, 0.00000E+00, 0.00000E+00, 0.00000E+00, 0.00000E+00, 0.00000E+00,      1,      1, 0.00000E+00,    1, 1.00000E+00,    0, 0.00000E+00,    0, 0.00000E+00,    0, 0.00000E+00
     2,     15, '1 ',  0.01938,  0.05917,   0.0528, '2_BUS2_138.0_15_NEW_BUS_1_138.0_1       ',      600,      700,      800, 0.00000E+00, 0.00000E+00, 0.00000E+00, 0.00000E+00, 0.00000E+00, 0.00000E+00, 0.00000E+00, 0.00000E+00, 0.00000E+00, 0.00000E+00, 0.00000E+00, 0.00000E+00, 0.00000E+00,      1,      1, 0.00000E+00,    1, 1.00000E+00,    0, 0.00000E+00,    0, 0.00000E+00,    0, 0.00000E+00
     3,      4, '1 ',  0.06701,  0.17103,   0.0128, '3_BUS3_138.0_4_BUS4_138.0_1             ',      600,      700,      800, 0.00000E+00, 0.00000E+00, 0.00000E+00, 0.00000E+00, 0.00000E+00, 0.00000E+00, 0.00000E+00, 0.00000E+00, 0.00000E+00, 0.00000E+00, 0.00000E+00, 0.00000E+00, 0.00000E+00,      1,      1, 0.00000E+00,    1, 1.00000E+00,    0, 0.00000E+00,    0, 0.00000E+00,    0, 0.00000E+00
     4,      5, '1 ',  0.01335,  0.04211, 0.00000E+00, '4_BUS4_138.0_5_BUS5_138.0_1             ',      600,      700,      800, 0.00000E+00, 0.00000E+00, 0.00000E+00, 0.00000E+00, 0.00000E+00, 0.00000E+00, 0.00000E+00, 0.00000E+00, 0.00000E+00, 0.00000E+00, 0.00000E+00, 0.00000E+00, 0.00000E+00,      1,      1, 0.00000E+00,    1, 1.00000E+00,    0, 0.00000E+00,    0, 0.00000E+00,    0, 0.00000E+00
     4,     19, '1 ',  0.06701,  0.17103,   0.0128, '4_BUS4_138.0_19_NUDOX2_138.0_1          ',      600,      700,      800, 0.00000E+00, 0.00000E+00, 0.00000E+00, 0.00000E+00, 0.00000E+00, 0.00000E+00, 0.00000E+00, 0.00000E+00, 0.00000E+00, 0.00000E+00, 0.00000E+00, 0.00000E+00, 0.00000E+00,      1,      1, 0.00000E+00,    1, 1.00000E+00,    0, 0.00000E+00,    0, 0.00000E+00,    0, 0.00000E+00
     5,     18, '1 ',  0.06701,  0.17103,   0.0128, '5_BUS5_138.0_18_NUDOX1_138.0_1          ',      600,      700,      800, 0.00000E+00, 0.00000E+00, 0.00000E+00, 0.00000E+00, 0.00000E+00, 0.00000E+00, 0.00000E+00, 0.00000E+00, 0.00000E+00, 0.00000E+00, 0.00000E+00, 0.00000E+00, 0.00000E+00,      1,      1, 0.00000E+00,    1, 1.00000E+00,    0, 0.00000E+00,    0, 0.00000E+00,    0, 0.00000E+00
     6,     11, '1 ',  0.09498,   0.1989, 0.00000E+00, '6_BUS6_138.0_11_BUS11_138.0_1           ',      600,      700,      800, 0.00000E+00, 0.00000E+00, 0.00000E+00, 0.00000E+00, 0.00000E+00, 0.00000E+00, 0.00000E+00, 0.00000E+00, 0.00000E+00, 0.00000E+00, 0.00000E+00, 0.00000E+00, 0.00000E+00,      1,      1, 0.00000E+00,    1, 1.00000E+00,    0, 0.00000E+00,    0, 0.00000E+00,    0, 0.00000E+00
     6,     12, '1 ',  0.12291,  0.25581, 0.00000E+00, '6_BUS6_138.0_12_BUS12_138.0_1           ',      600,      700,      800, 0.00000E+00, 0.00000E+00, 0.00000E+00, 0.00000E+00, 0.00000E+00, 0.00000E+00, 0.00000E+00, 0.00000E+00, 0.00000E+00, 0.00000E+00, 0.00000E+00, 0.00000E+00, 0.00000E+00,      1,      1, 0.00000E+00,    1, 1.00000E+00,    0, 0.00000E+00,    0, 0.00000E+00,    0, 0.00000E+00
     6,     13, '1 ',  0.06615,  0.13027, 0.00000E+00, '6_BUS6_138.0_13_BUS13_138.0_1           ',      600,      700,      800, 0.00000E+00, 0.00000E+00, 0.00000E+00, 0.00000E+00, 0.00000E+00, 0.00000E+00, 0.00000E+00, 0.00000E+00, 0.00000E+00, 0.00000E+00, 0.00000E+00, 0.00000E+00, 0.00000E+00,      1,      1, 0.00000E+00,    1, 1.00000E+00,    0, 0.00000E+00,    0, 0.00000E+00,    0, 0.00000E+00
     7,      8, '1 ', 0.00000E+00,  0.17615, 0.00000E+00, '7_BUS7_138.0_8_BUS8_138.0_1             ',      600,      700,      800, 0.00000E+00, 0.00000E+00, 0.00000E+00, 0.00000E+00, 0.00000E+00, 0.00000E+00, 0.00000E+00, 0.00000E+00, 0.00000E+00, 0.00000E+00, 0.00000E+00, 0.00000E+00, 0.00000E+00,      1,      1, 0.00000E+00,    1, 1.00000E+00,    0, 0.00000E+00,    0, 0.00000E+00,    0, 0.00000E+00
     7,      9, '1 ', 0.00000E+00,  0.11001, 0.00000E+00, '7_BUS7_138.0_9_BUS9_138.0_1             ',      600,      700,      800, 0.00000E+00, 0.00000E+00, 0.00000E+00, 0.00000E+00, 0.00000E+00, 0.00000E+00, 0.00000E+00, 0.00000E+00, 0.00000E+00, 0.00000E+00, 0.00000E+00, 0.00000E+00, 0.00000E+00,      1,      1, 0.00000E+00,    1, 1.00000E+00,    0, 0.00000E+00,    0, 0.00000E+00,    0, 0.00000E+00
     9,     10, '1 ',  0.03181,   0.0845, 0.00000E+00, '9_BUS9_138.0_10_BUS10_138.0_1           ',      600,      700,      800, 0.00000E+00, 0.00000E+00, 0.00000E+00, 0.00000E+00, 0.00000E+00, 0.00000E+00, 0.00000E+00, 0.00000E+00, 0.00000E+00, 0.00000E+00, 0.00000E+00, 0.00000E+00, 0.00000E+00,      1,      1, 0.00000E+00,    1, 1.00000E+00,    0, 0.00000E+00,    0, 0.00000E+00,    0, 0.00000E+00
     9,     14, '1 ',  0.12711,  0.27038, 0.00000E+00, '9_BUS9_138.0_14_BUS14_138.0_1           ',      600,      700,      800, 0.00000E+00, 0.00000E+00, 0.00000E+00, 0.00000E+00, 0.00000E+00, 0.00000E+00, 0.00000E+00, 0.00000E+00, 0.00000E+00, 0.00000E+00, 0.00000E+00, 0.00000E+00, 0.00000E+00,      1,      1, 0.00000E+00,    1, 1.00000E+00,    0, 0.00000E+00,    0, 0.00000E+00,    0, 0.00000E+00
    10,     11, '1 ',  0.08205,  0.19207, 0.00000E+00, '10_BUS10_138.0_11_BUS11_138.0_1         ',      600,      700,      800, 0.00000E+00, 0.00000E+00, 0.00000E+00, 0.00000E+00, 0.00000E+00, 0.00000E+00, 0.00000E+00, 0.00000E+00, 0.00000E+00, 0.00000E+00, 0.00000E+00, 0.00000E+00, 0.00000E+00,      1,      1, 0.00000E+00,    1, 1.00000E+00,    0, 0.00000E+00,    0, 0.00000E+00,    0, 0.00000E+00
    12,     13, '1 ',  0.22092,  0.19988, 0.00000E+00, '12_BUS12_138.0_13_BUS13_138.0_1         ',      600,      700,      800, 0.00000E+00, 0.00000E+00, 0.00000E+00, 0.00000E+00, 0.00000E+00, 0.00000E+00, 0.00000E+00, 0.00000E+00, 0.00000E+00, 0.00000E+00, 0.00000E+00, 0.00000E+00, 0.00000E+00,      1,      1, 0.00000E+00,    1, 1.00000E+00,    0, 0.00000E+00,    0, 0.00000E+00,    0, 0.00000E+00
    13,     14, '1 ',  0.17093,  0.34802, 0.00000E+00, '13_BUS13_138.0_14_BUS14_138.0_1         ',      600,      700,      800, 0.00000E+00, 0.00000E+00, 0.00000E+00, 0.00000E+00, 0.00000E+00, 0.00000E+00, 0.00000E+00, 0.00000E+00, 0.00000E+00, 0.00000E+00, 0.00000E+00, 0.00000E+00, 0.00000E+00,      1,      1, 0.00000E+00,    1, 1.00000E+00,    0, 0.00000E+00,    0, 0.00000E+00,    0, 0.00000E+00
0 / END OF BRANCH DATA, BEGIN SYSTEM SWITCHING DEVICE DATA
@!   I,     J,'CKT',          X,  RATE1,  RATE2,  RATE3,  RATE4,  RATE5,  RATE6,  RATE7,  RATE8,  RATE9, RATE10, RATE11, RATE12, STAT,NSTAT,  MET,STYPE,'NAME'
0 / END OF SYSTEM SWITCHING DEVICE DATA, BEGIN TRANSFORMER DATA
@!   I,     J,     K,'CKT',CW,CZ,CM,     MAG1,        MAG2,NMETR,               'N A M E',               STAT,O1,  F1,    O2,  F2,    O3,  F3,    O4,  F4,     'VECGRP', ZCOD
@!   R1-2,       X1-2, SBASE1-2,     R2-3,       X2-3, SBASE2-3,     R3-1,       X3-1, SBASE3-1, VMSTAR,   ANSTAR
@!WINDV1, NOMV1,   ANG1, RATE1-1, RATE1-2, RATE1-3, RATE1-4, RATE1-5, RATE1-6, RATE1-7, RATE1-8, RATE1-9,RATE1-10,RATE1-11,RATE1-12,COD1,CONT1,NOD1,  RMA1,   RMI1,   VMA1,   VMI1, NTP1,TAB1, CR1,    CX1,  CNXA1
@!WINDV2, NOMV2,   ANG2, RATE2-1, RATE2-2, RATE2-3, RATE2-4, RATE2-5, RATE2-6, RATE2-7, RATE2-8, RATE2-9,RATE2-10,RATE2-11,RATE2-12,COD2,CONT2,NOD2,  RMA2,   RMI2,   VMA2,   VMI2, NTP2,TAB2, CR2,    CX2,  CNXA2
@!WINDV3, NOMV3,   ANG3, RATE3-1, RATE3-2, RATE3-3, RATE3-4, RATE3-5, RATE3-6, RATE3-7, RATE3-8, RATE3-9,RATE3-10,RATE3-11,RATE3-12,COD3,CONT3,NOD3,  RMA3,   RMI3,   VMA3,   VMI3, NTP3,TAB3, CR3,    CX3,  CNXA3
     4,      7,      0, '1 ', 1, 1, 1, 0.00000E+00, 0.00000E+00, 2, '            ', 1,    1,   1.0000,    0,   1.0000,    0,   1.0000,    0,   1.0000, '            ',      0
0.00000E+00, 2.09120E-01,   100.00
 0.97800,  138.000,    0.000,   100.00,   110.00,   120.00,     0.00,     0.00,     0.00,     0.00,     0.00,     0.00,     0.00,     0.00,     0.00,      0,      0,      0,  1.50000,  0.51000,  1.00000,  1.00000,      2,      0,  0.00000,  0.00000,    0.000
 1.00000,    0.000
     4,      9,      0, '1 ', 1, 1, 1, 0.00000E+00, 0.00000E+00, 2, '            ', 1,    1,   1.0000,    0,   1.0000,    0,   1.0000,    0,   1.0000, '            ',      0
0.00000E+00, 5.56180E-01,   100.00
 0.96900,  138.000,    0.000,   100.00,   110.00,   120.00,     0.00,     0.00,     0.00,     0.00,     0.00,     0.00,     0.00,     0.00,     0.00,      0,      0,      0,  1.50000,  0.51000,  1.00000,  1.00000,      2,      0,  0.00000,  0.00000,    0.000
 1.00000,    0.000
     5,      6,      0, '1 ', 1, 1, 1, 0.00000E+00, 0.00000E+00, 2, '            ', 1,    1,   1.0000,    0,   1.0000,    0,   1.0000,    0,   1.0000, '            ',      0
0.00000E+00, 2.52020E-01,   100.00
 0.93200,  138.000,    0.000,   100.00,   110.00,   120.00,     0.00,     0.00,     0.00,     0.00,     0.00,     0.00,     0.00,     0.00,     0.00,      0,      0,      0,  1.50000,  0.51000,  1.00000,  1.00000,      2,      0,  0.00000,  0.00000,    0.000
 1.00000,    0.000
    12,     13,      0, '2 ', 1, 1, 1, 0.00000E+00, 0.00000E+00, 2, '            ', 1,    1,   1.0000,    0,   1.0000,    0,   1.0000,    0,   1.0000, '            ',      0
1.00000E-04, 4.10000E-03,   100.00
 1.00000,  138.000,    2.300,  1270.00,  1270.00,  1270.00,     0.00,     0.00,     0.00,     0.00,     0.00,     0.00,     0.00,     0.00,     0.00,      3,      0,      0, 50.00000,  0.51000,  1.00000,  1.00000,     33,      0,  0.00000,  0.00000,    0.000
 1.00000,    0.000
    15,     17,     16, '1 ', 1, 1, 1, 0.00000E+00, 0.00000E+00, 2, 'TR1         ', 1,    1,   1.0000,    0,   1.0000,    0,   1.0000,    0,   1.0000, '            ',      0
1.50000E-03, 6.86300E-02,   100.00, 3.10000E-03, 1.47330E-01,   100.00, 3.80000E-03, 2.08580E-01,   100.00,  1.00000,   0.0000
 1.00000,  135.003,    0.000,   300.00,   300.00,   420.00,     0.00,     0.00,     0.00,     0.00,     0.00,     0.00,     0.00,     0.00,     0.00,      0,      0,      0,  1.50000,  0.51000,  1.10000,  0.90000,     33,      0,  0.00000,  0.00000,    0.000
 0.00000,  405.980,    0.000,   300.00,   300.00,   420.00,     0.00,     0.00,     0.00,     0.00,     0.00,     0.00,     0.00,     0.00,     0.00,      0,      0,      0,  1.10000,  0.90000,  1.10000,  0.90000,     33,      0,  0.00000,  0.00000,    0.000
 0.00000,   33.000,    0.000,    90.00,    90.00,   126.00,     0.00,     0.00,     0.00,     0.00,     0.00,     0.00,     0.00,     0.00,     0.00,      0,      0,      0,  1.10000,  0.90000,  1.10000,  0.90000,      0,      0,  0.00000,  0.00000,    0.000
0 / END OF TRANSFORMER DATA, BEGIN AREA INTERCHANGE DATA
@! I,   ISW,    PDES,     PTOL,    'ARNAME'
     1,      0, 0.00000E+00, 0.00000E+00, 'IEEE14      '
     2,      0, 0.00000E+00, 0.00000E+00, 'EU          '
0 / END OF AREA INTERCHANGE DATA, BEGIN TWO-TERMINAL DC LINE DATA
@!  'NAME',   MDC,    RDC,     SETVL,    VSCHD,    VCMOD,    RCOMP,   DELTI,METER   DCVMIN,CCCITMX,CCCACC
@! IPR,NBR,  ANMXR,  ANMNR,   RCR,    XCR,   EBASR,  TRR,    TAPR,   TMXR,   TMNR,   STPR,    ICR,NDR,   IFR,   ITR,'IDR', XCAPR
@! IPI,NBI,  ANMXI,  ANMNI,   RCI,    XCI,   EBASI,  TRI,    TAPI,   TMXI,   TMNI,   STPI,    ICI,NDI,   IFI,   ITI,'IDI', XCAPI
'"CBX-CS1     "',      0,    1e-20, 0.00000E+00, 0.00000E+00, 0.00000E+00, 0.00000E+00, 0.00000E+00, 'I', 0.00000E+00,     20, 1.00000E+00
     9,      0,   57.296,  -57.296, 0.00000E+00, 0.00000E+00, 0.00000E+00, 1.00000E+00, 0.00000E+00, 1.50000E+00,     0.51, 6.25000E-03,      0,      0,      0,      0, '1', 0.00000E+00
    10,      0,   57.296,  -57.296, 0.00000E+00, 0.00000E+00, 0.00000E+00, 1.00000E+00, 0.00000E+00, 1.50000E+00,     0.51, 6.25000E-03,      0,      0,      0,      0, '1', 0.00000E+00
'"CBX-CS2     "',      0,    1e-20, 0.00000E+00, 0.00000E+00, 0.00000E+00, 0.00000E+00, 0.00000E+00, 'I', 0.00000E+00,     20, 1.00000E+00
     9,      0,   57.296,  -57.296, 0.00000E+00, 0.00000E+00, 0.00000E+00, 1.00000E+00, 0.00000E+00, 1.50000E+00,     0.51, 6.25000E-03,      0,      0,      0,      0, '1', 0.00000E+00
    10,      0,   57.296,  -57.296, 0.00000E+00, 0.00000E+00, 0.00000E+00, 1.00000E+00, 0.00000E+00, 1.50000E+00,     0.51, 6.25000E-03,      0,      0,      0,      0, '1', 0.00000E+00
0 / END OF TWO-TERMINAL DC LINE DATA, BEGIN VSC DC LINE DATA
@!  'NAME',   MDC,  RDC,   O1,  F1,    O2,  F2,    O3,  F3,    O4,  F4
@!IBUS,TYPE,MODE,  DCSET,  ACSET,  ALOSS,  BLOSS,MINLOSS,  SMAX,   IMAX,   PWF,     MAXQ,   MINQ, 
VSREG,NREG, RMPCT
'"CBX-CS1     "',      1, 5.32000E+00,      0, 0.00000E+00,      0, 0.00000E+00,      0, 0.00000E+00,      0, 0.00000E+00
     0,      1,      1, 0.00000E+00,     0.97, 0.00000E+00, 0.00000E+00,      0, 0.00000E+00, 0.00000E+00, 0.00000E+00, 0.00000E+00, 0.00000E+00,      0,      0, 0.00000E+00
     0,      0,      0, 0.00000E+00, 1.00000E+00, 0.00000E+00, 0.00000E+00,      0, 0.00000E+00, 0.00000E+00, 0.00000E+00, 0.00000E+00, 0.00000E+00,      0,      0,      100
'"CBX-CS2     "',      1, 5.32000E+00,      0, 0.00000E+00,      0, 0.00000E+00,      0, 0.00000E+00,      0, 0.00000E+00
     0,      1,      1, 0.00000E+00,     0.97, 0.00000E+00, 0.00000E+00,      0, 0.00000E+00, 0.00000E+00, 0.00000E+00, 0.00000E+00, 0.00000E+00,      0,      0, 0.00000E+00
     0,      0,      0, 0.00000E+00, 1.00000E+00, 0.00000E+00, 0.00000E+00,      0, 0.00000E+00, 0.00000E+00, 0.00000E+00, 0.00000E+00, 0.00000E+00,      0,      0,      100
0 / END OF VSC DC LINE DATA, BEGIN IMPEDANCE CORRECTION DATA
@!I,  T1,   Re(F1), Im(F1),   T2,   Re(F2), Im(F2),   T3,   Re(F3), Im(F3),   T4,   Re(F4), Im(F4),   T5,   Re(F5), Im(F5),   T6,   Re(F6), Im(F6)
@!    T7,   Re(F7), Im(F7),   T8,   Re(F8), Im(F8),   T9,   Re(F9), Im(F9),   T10, Re(F10),Im(F10),   T11, Re(F11),Im(F11),   T12, Re(F12),Im(F12)
@!      ...
0 / END OF IMPEDANCE CORRECTION DATA, BEGIN MULTI-TERMINAL DC LINE DATA
@!  'NAME',    NCONV,NDCBS,NDCLN,  MDC, VCONV,   VCMOD, VCONVN
@!  IB, N,  ANGMX,  ANGMN,   RC,     XC,     EBAS,   TR,    TAP,    TPMX,   TPMN,   TSTP,   SETVL,   DCPF,  MARG,CNVCOD
@!IDC, IB,AREA,ZONE,   'DCNAME',  IDC2, RGRND,OWNER
@!IDC,JDC,'DCCKT',MET,  RDC,      LDC
0 / END OF MULTI-TERMINAL DC LINE DATA, BEGIN MULTI-SECTION LINE GROUP DATA
@!   I,     J,'ID',MET,DUM1,  DUM2,  DUM3,  DUM4,  DUM5,  DUM6,  DUM7,  DUM8,  DUM9
0 / END OF MULTI-SECTION LINE GROUP DATA, BEGIN ZONE DATA
@! I,   'ZONAME'
     1, 'IEEE14      '
     2, 'EU          '
0 / END OF ZONE DATA, BEGIN INTER-AREA TRANSFER DATA
@!ARFROM,ARTO,'TRID',PTRAN
0 / END OF INTER-AREA TRANSFER DATA, BEGIN OWNER DATA
@! I,   'OWNAME'
   1, 'default     '
0 / END OF OWNER DATA, BEGIN FACTS DEVICE DATA
@!  'NAME',         I,     J,MODE,PDES,   QDES,  VSET,   SHMX,   TRMX,   VTMN,   VTMX,   VSMX,    IMX,   LINX,   RMPCT,OWNER,  SET1,    SET2,VSREF, FCREG,NREG,   'MNAME'
0 / END OF FACTS DEVICE DATA, BEGIN SWITCHED SHUNT DATA
@!   I,'ID',MODSW,ADJM,ST, VSWHI,  VSWLO, SWREG,NREG, RMPCT,   'RMIDNT',     BINIT,S1,N1,    B1, S2,N2,    B2, S3,N3,    B3, S4,N4,    B4, S5,N5,    B5, S6,N6,    B6, S7,N7,    B7, S8,N8,    B8
    12, '  ',      0,      0,      1, 1.00000E+00, 1.00000E+00,      0,      0, 1.00000E+00, '',       50,      3,       50,      0, 0.00000E+00,      0, 0.00000E+00,      0, 0.00000E+00,      0, 0.00000E+00,      0, 0.00000E+00,      0, 0.00000E+00,      0, 0.00000E+00
    12, '  ',      0,      0,      1, 1.00000E+00, 1.00000E+00,      0,      0, 1.00000E+00, '',       50,      1,      100,      1, 0.00000E+00,      0, 0.00000E+00,      0, 0.00000E+00,      0, 0.00000E+00,      0, 0.00000E+00,      0, 0.00000E+00,      0, 0.00000E+00
0 / END OF SWITCHED SHUNT DATA, BEGIN GNE DATA
@!  'NAME',        'MODEL',     NTERM,BUS1...BUSNTERM,NREAL,NINTG,NCHAR
@!ST,OWNER,NMETR
@! REAL1...REAL(MIN(10,NREAL))
@! INTG1...INTG(MIN(10,NINTG))
@! CHAR1...CHAR(MIN(10,NCHAR))
0 / END OF GNE DATA, BEGIN SUBSTATION DATA
0 / END OF SUBSTATION DATA
Q
